%nprocshared=50
%mem=8GB
%chk=Adenine6311-opt.chk
#p opt cam-b3lyp/6-311+G(d,p) symm=loose 

Adenine

0 1
   6             0.664555   -2.021821    0.000000 
   7             1.659008   -1.127792    0.000000 
   6             1.353886    0.171290    0.000000 
   6             0.000000    0.543282    0.000000 
   6            -0.918721   -0.495494    0.000000 
   7            -0.641588   -1.798863    0.000000 
   1             0.973540   -3.061995    0.000000 
   7             2.348282    1.080832    0.000000 
   1             3.301658    0.761362    0.000000 
   1             2.137417    2.063682    0.000000 
   7            -0.633203    1.770424    0.000000 
   7            -2.142670    0.123487    0.000000 
   6            -1.899333    1.476588    0.000000 
   1            -3.038351   -0.337796    0.000000 
   1            -2.705393    2.195054    0.000000 

 
 
 
 
 
 

