%nprocshared=50
%mem=5GB
%chk=Cytosine6311-opt.chk
#p opt cam-b3lyp/6-311+G(d,p)  symm=loose

Cytosine

0 1
  6      -0.066548   -1.714527   -0.000000 
  6      -1.219007    0.431513    0.000000 
  6       1.101517    0.340693   -0.000000 
  6       1.131900   -1.097127   -0.000000 
  7      -1.203699   -0.985159    0.000000 
  7      -0.000000    1.047554    0.000000 
  7       2.271670    1.018994   -0.000000 
  8      -2.290717    0.994921    0.000000 
  1      -2.112424   -1.423553    0.000000 
  1       2.056960   -1.653675   -0.000000 
  1      -0.176634   -2.791533   -0.000000 
  1       3.159550    0.551294   -0.000000 
  1       2.235310    2.025069   -0.000000 



