%nprocshared=28
%mem=10GB
%chk=Thymine_distorted.chk
#p td=(nstates=10) cam-b3lyp/6-311+g(d,p) symm=loose

Thymine distortion

0 1
 N                  1.12180100   -1.23179500   -0.03922300
 C                  1.66586100    0.03564900   -0.01119700
 N                  0.70945100    1.02930700    0.01013900
 C                 -0.68097800    0.88234500    0.00628000
 C                 -1.15187300   -0.50450900   -0.02432900
 C                 -0.23318500   -1.48058400   -0.04529800
 O                  2.85558000    0.24690900   -0.00602100
 O                 -1.39961700    1.85681100    0.02730500
 H                  1.78933700   -1.98674400   -0.05546100
 H                  1.06081900    1.97792900    0.03109000
 C                 -2.62834500   -0.74185700   -0.03020900
 H                 -0.49626457   -2.52193046    0.09101254
 H                 -2.85302800   -1.80888600   -0.05369600
 H                 -3.09407500   -0.30533700    0.85548600
 H                 -3.09327100   -0.26694500   -0.89635800

